version 2
run General-0-20200111-08:33:31-7093
attr configname General
attr datetime 20200111-08:33:31
attr experiment General
attr inifile omnetpp.ini
attr iterationvars ""
attr iterationvarsf ""
attr measurement ""
attr network SourceSink
attr processid 7093
attr repetition 0
attr replication #0
attr resultdir results
attr runnumber 0
attr seedset 0

statistic SourceSink.sink "interarrival times"
field count 0
field mean -nan
field stddev -nan
field min -nan
field max -nan
field sum 0
field sqrsum 0
bin	-inf	0
bin	-0.5	0
bin	-0.46666666666667	0
bin	-0.43333333333333	0
bin	-0.4	0
bin	-0.36666666666667	0
bin	-0.33333333333333	0
bin	-0.3	0
bin	-0.26666666666667	0
bin	-0.23333333333333	0
bin	-0.2	0
bin	-0.16666666666667	0
bin	-0.13333333333333	0
bin	-0.1	0
bin	-0.066666666666667	0
bin	-0.033333333333333	0
bin	0	0
bin	0.033333333333333	0
bin	0.066666666666667	0
bin	0.1	0
bin	0.13333333333333	0
bin	0.16666666666667	0
bin	0.2	0
bin	0.23333333333333	0
bin	0.26666666666667	0
bin	0.3	0
bin	0.33333333333333	0
bin	0.36666666666667	0
bin	0.4	0
bin	0.43333333333333	0
bin	0.46666666666667	0
bin	0.5	0
statistic SourceSink.sink2 "interarrival times"
field count 4
field mean 0.00057666666625
field stddev 7.06666665e-05
field min 0.000541333333
field max 0.000682666666
field sum 0.002306666665
field sqrsum 1.3451591091182e-06
bin	-inf	0
bin	0.0004706666665	0
bin	0.0004800888887	0
bin	0.0004895111109	0
bin	0.0004989333331	0
bin	0.0005083555553	0
bin	0.0005177777775	0
bin	0.0005271999997	0
bin	0.0005366222219	3
bin	0.0005460444441	0
bin	0.0005554666663	0
bin	0.0005648888885	0
bin	0.0005743111107	0
bin	0.0005837333329	0
bin	0.0005931555551	0
bin	0.0006025777773	0
bin	0.0006119999995	0
bin	0.0006214222217	0
bin	0.0006308444439	0
bin	0.0006402666661	0
bin	0.0006496888883	0
bin	0.0006591111105	0
bin	0.0006685333327	0
bin	0.0006779555549	1
bin	0.0006873777771	0
bin	0.0006967999993	0
bin	0.0007062222215	0
bin	0.0007156444437	0
bin	0.0007250666659	0
bin	0.0007344888881	0
bin	0.0007439111103	0
bin	0.0007533333325	0

