version 2
run General-0-20200108-15:50:19-9408
attr configname General
attr datetime 20200108-15:50:19
attr experiment General
attr inifile omnetpp.ini
attr iterationvars ""
attr iterationvarsf ""
attr measurement ""
attr network SourceSink
attr processid 9408
attr repetition 0
attr replication #0
attr resultdir results
attr runnumber 0
attr seedset 0

statistic SourceSink.sink "interarrival times"
field count 19
field mean 0.00053080701721053
field stddev 4.5883146774112e-05
field min 0.000341333333
field max 0.000541333333
field sum 0.010085333327
field sqrsum 5.3912604377209e-06
bin	-inf	0
bin	0.000241333333	0
bin	0.00025466666633333	0
bin	0.00026799999966667	0
bin	0.000281333333	0
bin	0.00029466666633333	0
bin	0.00030799999966667	0
bin	0.000321333333	0
bin	0.00033466666633333	1
bin	0.00034799999966667	0
bin	0.000361333333	0
bin	0.00037466666633333	0
bin	0.00038799999966667	0
bin	0.000401333333	0
bin	0.00041466666633333	0
bin	0.00042799999966667	0
bin	0.000441333333	0
bin	0.00045466666633333	0
bin	0.00046799999966667	0
bin	0.000481333333	0
bin	0.00049466666633333	0
bin	0.00050799999966667	0
bin	0.000521333333	0
bin	0.00053466666633333	18
bin	0.00054799999966667	0
bin	0.000561333333	0
bin	0.00057466666633333	0
bin	0.00058799999966667	0
bin	0.000601333333	0
bin	0.00061466666633333	0
bin	0.00062799999966667	0
bin	0.000641333333	0

