version 2
run General-0-20200108-14:47:42-5055
attr configname General
attr datetime 20200108-14:47:42
attr experiment General
attr inifile omnetpp.ini
attr iterationvars ""
attr iterationvarsf ""
attr measurement ""
attr network SourceSink
attr processid 5055
attr repetition 0
attr replication #0
attr resultdir results
attr runnumber 0
attr seedset 0

statistic SourceSink.sink "interarrival times"
field count 11
field mean 0.00052315151481818
field stddev 6.0302268915554e-05
field min 0.000341333333
field max 0.000541333333
field sum 0.005754666663
field sqrsum 3.0469262183858e-06
bin	-inf	0
bin	0.000241333333	0
bin	0.00025466666633333	0
bin	0.00026799999966667	0
bin	0.000281333333	0
bin	0.00029466666633333	0
bin	0.00030799999966667	0
bin	0.000321333333	0
bin	0.00033466666633333	1
bin	0.00034799999966667	0
bin	0.000361333333	0
bin	0.00037466666633333	0
bin	0.00038799999966667	0
bin	0.000401333333	0
bin	0.00041466666633333	0
bin	0.00042799999966667	0
bin	0.000441333333	0
bin	0.00045466666633333	0
bin	0.00046799999966667	0
bin	0.000481333333	0
bin	0.00049466666633333	0
bin	0.00050799999966667	0
bin	0.000521333333	0
bin	0.00053466666633333	10
bin	0.00054799999966667	0
bin	0.000561333333	0
bin	0.00057466666633333	0
bin	0.00058799999966667	0
bin	0.000601333333	0
bin	0.00061466666633333	0
bin	0.00062799999966667	0
bin	0.000641333333	0

